Input Parameters:
   integrator                     = md
   tinit                          = 0
   dt                             = 0.0025
   nsteps                         = 50000
   init-step                      = 0
   simulation-part                = 1
   comm-mode                      = Linear
   nstcomm                        = 100
   bd-fric                        = 0
   ld-seed                        = 918425112
   emtol                          = 10
   emstep                         = 0.01
   niter                          = 20
   fcstep                         = 0
   nstcgsteep                     = 1000
   nbfgscorr                      = 10
   rtpi                           = 0.05
   nstxout                        = 0
   nstvout                        = 0
   nstfout                        = 0
   nstlog                         = 0
   nstcalcenergy                  = 10
   nstenergy                      = 0
   nstxout-compressed             = 0
   compressed-x-precision         = 1000
   cutoff-scheme                  = Verlet
   nstlist                        = 10
   ns-type                        = Grid
   pbc                            = xyz
   periodic-molecules             = false
   verlet-buffer-tolerance        = 0.005
   rlist                          = 1
   coulombtype                    = PME
   coulomb-modifier               = Potential-shift
   rcoulomb-switch                = 0
   rcoulomb                       = 1
   epsilon-r                      = 1
   epsilon-rf                     = 1
   vdw-type                       = Cut-off
   vdw-modifier                   = Potential-shift
   rvdw-switch                    = 0
   rvdw                           = 1
   DispCorr                       = EnerPres
   table-extension                = 1
   fourierspacing                 = 0.12
   fourier-nx                     = 96
   fourier-ny                     = 96
   fourier-nz                     = 128
   pme-order                      = 4
   ewald-rtol                     = 1e-05
   ewald-rtol-lj                  = 0.001
   lj-pme-comb-rule               = Geometric
   ewald-geometry                 = 0
   epsilon-surface                = 0
   tcoupl                         = V-rescale
   nsttcouple                     = 10
   nh-chain-length                = 0
   print-nose-hoover-chain-variables = false
   pcoupl                         = No
   pcoupltype                     = Semiisotropic
   nstpcouple                     = -1
   tau-p                          = 5
   compressibility (3x3):
      compressibility[    0]={ 0.00000e+00,  0.00000e+00,  0.00000e+00}
      compressibility[    1]={ 0.00000e+00,  0.00000e+00,  0.00000e+00}
      compressibility[    2]={ 0.00000e+00,  0.00000e+00,  0.00000e+00}
   ref-p (3x3):
      ref-p[    0]={ 0.00000e+00,  0.00000e+00,  0.00000e+00}
      ref-p[    1]={ 0.00000e+00,  0.00000e+00,  0.00000e+00}
      ref-p[    2]={ 0.00000e+00,  0.00000e+00,  0.00000e+00}
   refcoord-scaling               = COM
   posres-com (3):
      posres-com[0]= 0.00000e+00
      posres-com[1]= 0.00000e+00
      posres-com[2]= 0.00000e+00
   posres-comB (3):
      posres-comB[0]= 0.00000e+00
      posres-comB[1]= 0.00000e+00
      posres-comB[2]= 0.00000e+00
   QMMM                           = false
   QMconstraints                  = 0
   QMMMscheme                     = 0
   MMChargeScaleFactor            = 1
qm-opts:
   ngQM                           = 0
   constraint-algorithm           = Lincs
   continuation                   = false
   Shake-SOR                      = false
   shake-tol                      = 0.0001
   lincs-order                    = 4
   lincs-iter                     = 1
   lincs-warnangle                = 45
   nwall                          = 0
   wall-type                      = 9-3
   wall-r-linpot                  = -1
   wall-atomtype[0]               = -1
   wall-atomtype[1]               = -1
   wall-density[0]                = 0
   wall-density[1]                = 0
   wall-ewald-zfac                = 3
   pull                           = false
   awh                            = false
   rotation                       = false
   interactiveMD                  = false
   disre                          = No
   disre-weighting                = Conservative
   disre-mixed                    = false
   dr-fc                          = 1000
   dr-tau                         = 0
   nstdisreout                    = 100
   orire-fc                       = 0
   orire-tau                      = 0
   nstorireout                    = 100
   free-energy                    = no
   cos-acceleration               = 0
   deform (3x3):
      deform[    0]={ 0.00000e+00,  0.00000e+00,  0.00000e+00}
      deform[    1]={ 0.00000e+00,  0.00000e+00,  0.00000e+00}
      deform[    2]={ 0.00000e+00,  0.00000e+00,  0.00000e+00}
   simulated-tempering            = false
   swapcoords                     = no
   userint1                       = 0
   userint2                       = 0
   userint3                       = 0
   userint4                       = 0
   userreal1                      = 0
   userreal2                      = 0
   userreal3                      = 0
   userreal4                      = 0
   applied-forces:
     electric-field:
grpopts:
   nrdf:     54019.4     33135.6      196258
   ref-t:         310         310         310
   tau-t:         0.1         0.1         0.1
annealing:          No          No          No
annealing-npoints:           0           0           0
   acc:	           0           0           0
   nfreeze:           N           N           N
   energygrp-flags[  0]: 0

The -nsteps functionality is deprecated, and may be removed in a future version. Consider using gmx convert-tpr -nsteps or changing the appropriate .mdp file field.

Overriding nsteps with value passed on the command line: 10000 steps, 25 ps
Changing nstlist from 10 to 80, rlist from 1 to 1.129

Initializing Domain Decomposition on 16 ranks
Dynamic load balancing: locked
Minimum cell size due to atom displacement: 0.785 nm
Initial maximum distances in bonded interactions:
    two-body bonded interactions: 0.458 nm, LJ-14, atoms 2075 2313
  multi-body bonded interactions: 0.458 nm, Proper Dih., atoms 2075 2313
Minimum cell size due to bonded interactions: 0.504 nm
Maximum distance for 5 constraints, at 120 deg. angles, all-trans: 0.871 nm
Estimated maximum distance required for P-LINCS: 0.871 nm
This distance will limit the DD cell size, you can override this with -rcon
Using 0 separate PME ranks, as there are too few total
 ranks for efficient splitting
Scaling the initial minimum size with 1/0.8 (option -dds) = 1.25
Optimizing the DD grid for 16 cells with a minimum initial size of 1.089 nm
The maximum allowed number of cells is: X 8 Y 8 Z 13
Domain decomposition grid 4 x 1 x 4, separate PME ranks 0
PME domain decomposition: 16 x 1 x 1
Domain decomposition rank 0, coordinates 0 0 0

The initial number of communication pulses is: X 1 Z 1
The initial domain decomposition cell size is: X 2.44 nm Z 3.71 nm

The maximum allowed distance for atoms involved in interactions is:
                 non-bonded interactions           1.129 nm
            two-body bonded interactions  (-rdd)   1.129 nm
          multi-body bonded interactions  (-rdd)   1.129 nm
  atoms separated by up to 5 constraints  (-rcon)  2.436 nm

When dynamic load balancing gets turned on, these settings will change to:
The maximum number of communication pulses is: X 1 Z 1
The minimum size for domain decomposition cells is 1.129 nm
The requested allowed shrink of DD cells (option -dds) is: 0.80
The allowed shrink of domain decomposition cells is: X 0.46 Z 0.30
The maximum allowed distance for atoms involved in interactions is:
                 non-bonded interactions           1.129 nm
            two-body bonded interactions  (-rdd)   1.129 nm
          multi-body bonded interactions  (-rdd)   1.129 nm
  atoms separated by up to 5 constraints  (-rcon)  1.129 nm
Using two step summing over 2 groups of on average 8.0 ranks

Using 16 MPI processes
Using 4 OpenMP threads per MPI process

Pinning threads with an auto-selected logical core stride of 1
System total charge: 0.000
Will do PME sum in reciprocal space for electrostatic interactions.

Using a Gaussian width (1/beta) of 0.320163 nm for Ewald
Potential shift: LJ r^-12: -1.000e+00 r^-6: -1.000e+00, Ewald -1.000e-05
Initialized non-bonded Ewald correction tables, spacing: 9.33e-04 size: 1073

Long Range LJ corr.: <C6> 6.7202e-04
Generated table with 1064 data points for Ewald.
Tabscale = 500 points/nm
Generated table with 1064 data points for LJ6.
Tabscale = 500 points/nm
Generated table with 1064 data points for LJ12.
Tabscale = 500 points/nm
Generated table with 1064 data points for 1-4 COUL.
Tabscale = 500 points/nm
Generated table with 1064 data points for 1-4 LJ6.
Tabscale = 500 points/nm
Generated table with 1064 data points for 1-4 LJ12.
Tabscale = 500 points/nm

Using SIMD 4x8 nonbonded short-range kernels

Using a dual 4x8 pair-list setup updated with dynamic pruning:
  outer list: updated every 80 steps, buffer 0.129 nm, rlist 1.129 nm
  inner list: updated every 13 steps, buffer 0.003 nm, rlist 1.003 nm
At tolerance 0.005 kJ/mol/ps per atom, equivalent classical 1x1 list would be:
  outer list: updated every 80 steps, buffer 0.279 nm, rlist 1.279 nm
  inner list: updated every 13 steps, buffer 0.061 nm, rlist 1.061 nm

Using Lorentz-Berthelot Lennard-Jones combination rule

Removing pbc first time

Initializing Parallel LINear Constraint Solver

The number of constraints is 43677
There are constraints between atoms in different decomposition domains,
will communicate selected coordinates each lincs iteration

Linking all bonded interactions to atoms

The -noconfout functionality is deprecated, and may be removed in a future version.

Intra-simulation communication will occur every 10 steps.
Center of mass motion removal mode is Linear
We have the following groups for center of mass motion removal:
  0:  System

There are: 141677 Atoms
Atom distribution over 16 domains: av 8854 stddev 1544 min 6343 max 10619

Constraining the starting coordinates (step 0)

Constraining the coordinates at t0-dt (step 0)
RMS relative constraint deviation after constraining: 8.37e-06
Initial temperature: 308.788 K

Started mdrun on rank 0 Wed Nov 27 17:38:46 2019

The -resethway functionality is deprecated, and may be removed in a future version.
           Step           Time
              0        0.00000

   Energies (kJ/mol)
          Angle    Proper Dih. Ryckaert-Bell.  Improper Dih.  Improper Dih.
    8.90881e+04    8.15625e+04    1.56558e+04    1.81448e+03    3.30356e+03
          LJ-14     Coulomb-14        LJ (SR)  Disper. corr.   Coulomb (SR)
    4.75340e+04    3.40970e+05    7.67581e+04   -3.46877e+04   -2.51734e+06
    2.10405e+04   -1.87430e+06    3.64053e+05   -1.51025e+06   -1.51025e+06
    Temperature Pres. DC (bar) Pressure (bar)   Constr. rmsd
    3.08987e+02   -3.54583e+02    3.04844e+02    3.27406e-05

	<====  A V E R A G E S  ====>

	Statistics over 10001 steps using 1001 frames

   Energies (kJ/mol)
          Angle    Proper Dih. Ryckaert-Bell.  Improper Dih.  Improper Dih.
    8.88102e+04    8.15363e+04    1.53616e+04    1.87314e+03    3.29151e+03
          LJ-14     Coulomb-14        LJ (SR)  Disper. corr.   Coulomb (SR)
    4.75154e+04    3.40698e+05    7.48136e+04   -3.46877e+04   -2.51477e+06
   Coul. recip.      Potential    Kinetic En.   Total Energy  Conserved En.
    2.11188e+04   -1.87444e+06    3.65091e+05   -1.50935e+06   -1.51770e+06
    Temperature Pres. DC (bar) Pressure (bar)   Constr. rmsd
    3.09869e+02   -3.54583e+02   -5.48502e+00    0.00000e+00

   Total Virial (kJ/mol)
    1.23105e+05   -1.04757e+02   -7.81847e+01
   -1.03800e+02    1.22848e+05    2.14127e+02
   -7.32002e+01    2.12973e+02    1.19944e+05

   Pressure (bar)
   -9.39221e+00    1.22518e+00    3.34483e+00
    1.20563e+00   -2.87678e+00   -3.96941e+00
    3.24306e+00   -3.94584e+00   -4.18608e+00

      T-Protein         T-DOPCT-Water_and_ions
    3.09635e+02    3.09888e+02    3.09930e+02
